/*--------------------------------*- C++ -*---------------------------------*\ 
| ========                 |                                                 | 
| \      /  F ield         | OpenFOAM: The Open Source CFD Toolbox           | 
|  \    /   O peration     | Version:  v1812                                 | 
|   \  /    A nd           | Web:      www.OpenFOAM.com                      | 
|    \/     M anipulation  |                                                 | 
\*--------------------------------------------------------------------------*/ 
FoamFile
{
    version     2.0;
    format      ascii;
    class       dictionary;
    location    "system";
    object      fvSchemes;
}
// * * * * * * * * * * * * * * * * * * * * * * * * * * * * * * * * * * * * * //

ddtSchemes 
{
    default                                             steadyState;
}

gradSchemes
{
    default                                             Gauss linear;
}

divSchemes
{
    default                                             none;
    div((p*(U-URel)))                                   Gauss linear;
    div(phi,h)                                          Gauss upwind;
    div((-devRhoReff.T()&U))                            Gauss linear;
    div(phi,K)                                          Gauss upwind;
    div(phi,U)                                          Gauss linearUpwindV grad(U);
    div(phid,p)                                         Gauss upwind;
    div(pc)                                             Gauss upwind;
    div(((rho*nuEff)*dev2(T(grad(U)))))                 Gauss linear;
    div(phi,nuTilda)                                    Gauss upwind;
    div(phi,k)                                          Gauss upwind;
    div(phi,omega)                                      Gauss upwind;
    div(phi,epsilon)                                    Gauss upwind;
}

interpolationSchemes
{
    default                                             linear;
}

laplacianSchemes
{
    default                                             Gauss linear corrected;
}

snGradSchemes
{
    default                                             corrected;
}

wallDist
{
    method                                              meshWaveFrozen;
}

// * * * * * * * * * * * * * * * * * * * * * * * * * * * * * * * * * * * * * //
