/*--------------------------------*- C++ -*---------------------------------*\ 
| ========                 |                                                 | 
| \      /  F ield         | OpenFOAM: The Open Source CFD Toolbox           | 
|  \    /   O peration     | Version:  v1812                                 | 
|   \  /    A nd           | Web:      www.OpenFOAM.com                      | 
|    \/     M anipulation  |                                                 | 
\*--------------------------------------------------------------------------*/ 
FoamFile
{
    version     2.0;
    format      ascii;
    class       dictionary;
    location    "system";
    object      fvSolution;
}
// * * * * * * * * * * * * * * * * * * * * * * * * * * * * * * * * * * * * * //

SIMPLE
{
    nNonOrthogonalCorrectors           0;
    transonic                          true;
}

solvers
{
    "(p|p_rgh|G)"
    {
        
        solver                         GAMG;
        smoother                       GaussSeidel;
        relTol                         0.1;
        tolerance                      0;
    }
    Phi
    {
        $p;
        relTol                         0;
        tolerance                      1e-6;
    }
    "(U|T|e|h|nuTilda|k|omega|epsilon)"
    {
        solver                         smoothSolver;
        smoother                       GaussSeidel;
        relTol                         0.1;
        tolerance                      0;
        nSweeps                        1;
    }
}

relaxationFactors
{
    fields
    {
        p                              0.80;
        rho                            1.00;
    }
    equations
    {
        p                              0.80;
        "(U|T|e|h|nuTilda|k|epsilon|omega)" 0.20;
    }
}

potentialFlow
{
    nNonOrthogonalCorrectors           20;
}


// * * * * * * * * * * * * * * * * * * * * * * * * * * * * * * * * * * * * * //
