/*--------------------------------*- C++ -*----------------------------------*\
|                                                                             |
|    HiSA: High Speed Aerodynamic solver                                      |
|    Copyright (C) 2014-2017 Johan Heyns - CSIR, South Africa                 |
|    Copyright (C) 2014-2017 Oliver Oxtoby - CSIR, South Africa               |
|                                                                             |
\*---------------------------------------------------------------------------*/
FoamFile
{
    version     2.0;
    format      ascii;
    class       dictionary;
    location    "system";
    object      fvSolution;
}
// * * * * * * * * * * * * * * * * * * * * * * * * * * * * * * * * * * * * * //

solvers
{
    nuTilda
    {
        solver          smoothSolver;
        smoother        symGaussSeidel;
        tolerance       0;
        relTol          1e-1;
        minIter         1;
    }

    yPsi
    {
        solver          GAMG;
        smoother        GaussSeidel;
        cacheAgglomeration true;
        nCellsInCoarsestLevel 10;
        agglomerator    faceAreaPair;
        mergeLevels     1;
        tolerance       0;
        relTol          0;
    }
}

relaxationFactors
{
    equations
    {
        nuTilda         0.5;
        yWall           0.7;
    }
}

flowSolver
{
    solver            GMRES;
    GMRES
    {
        inviscidJacobian  LaxFriedrich;
        viscousJacobian   laplacian;
        preconditioner    LUSGS;

        maxIter           20;
        nKrylov           8;
        solverTolRel      1e-1 (1e-1 1e-1 1e-1) 1e-1;
    }
}

pseudoTime
{
    pseudoTol          1e-8 (1e-8 1e-8 1e-8) 1e-8;
    pseudoCoNum        1.0;
    pseudoCoNumMax     10.0;
    localTimestepping  true;
}

// ************************************************************************* //
