/*--------------------------------*- C++ -*----------------------------------*\
| =========                 |                                                 |
| \\      /  F ield         | OpenFOAM: The Open Source CFD Toolbox           |
|  \\    /   O peration     | Version:  v1812                                 |
|   \\  /    A nd           | Web:      www.OpenFOAM.com                      |
|    \\/     M anipulation  |                                                 |
\*---------------------------------------------------------------------------*/
FoamFile
{
    version     2.0;
    format      ascii;
    class       volVectorField;
    object      D;
}
// * * * * * * * * * * * * * * * * * * * * * * * * * * * * * * * * * * * * * //

dimensions      [0 1 0 0 0 0 0];

internalField   uniform (0 0 0);

boundaryField
{
    wallx
    {
        type            tractionDisplacement;
        traction        uniform (0 0 0);
        pressure        uniform 10000;
        value           uniform (0 0 0);
    }
    wally
    {
        type            tractionDisplacement;
        traction        uniform (0 0 0);
        pressure        uniform 0;
        value           uniform (0 0 0);
    }
    hole
    {
        type            tractionDisplacement;
        traction        uniform (0 0 0);
        pressure        uniform 0;
        value           uniform (0 0 0);
    }
    sym
    {
        type            symmetry;
    }
}

// ************************************************************************* //
