/*--------------------------------*- C++ -*----------------------------------*\
| =========                 |                                                 |
| \\      /  F ield         | OpenFOAM: The Open Source CFD Toolbox           |
|  \\    /   O peration     | Version:  plus                                  |
|   \\  /    A nd           | Web:      www.OpenFOAM.org                      |
|    \\/     M anipulation  |                                                 |
\*---------------------------------------------------------------------------*/
FoamFile
{
    version     2.0;
    format      ascii;
    class       volScalarField;
    location    "0";
    object      T;
}
// * * * * * * * * * * * * * * * * * * * * * * * * * * * * * * * * * * * * * //
#include         "include/freestreamConditions"
dimensions      [0 0 0 1 0 0 0];

internalField   uniform $T;

boundaryField
{
    "wing.*"
    {
        type            characteristicWallTemperature;
        value           $internalField;
    }
    symmetry1
    {
        type            symmetry;
    }
    symmetry2
    {
        type            symmetry;
    }
    inout
    {
        type            characteristicFarfieldTemperature;
        #include        "include/freestreamConditions"
        value           $internalField;
        //type            inletOutlet;
        //inletValue      $internalField;
        //value           $internalField;
    }
}


// ************************************************************************* //
