/*--------------------------------*- C++ -*----------------------------------*\
| =========                 |                                                 |
| \\      /  F ield         | OpenFOAM: The Open Source CFD Toolbox           |
|  \\    /   O peration     | Version:  v1812                                 |
|   \\  /    A nd           | Web:      www.OpenFOAM.com                      |
|    \\/     M anipulation  |                                                 |
\*---------------------------------------------------------------------------*/
FoamFile
{
    version     2.0;
    format      ascii;
    class       volScalarField;
    location    "0";
    object      p;
}
// * * * * * * * * * * * * * * * * * * * * * * * * * * * * * * * * * * * * * //

dimensions      [1 -1 -2 0 0 0 0];


internalField   uniform 103000;

boundaryField
{
    blade
    {
        type            zeroGradient;
    }
    inlet
    {
        type            totalPressure;
	p0              uniform 101325;
        value           uniform 101325;
    }
    outlet
    {
        type            fixedValue;
        value           uniform 104000;
    }
    shroud
    {
        type            zeroGradient;
    }
    hub
    {
        type            zeroGradient;
    }
    per1
    {
        type            cyclic;
    }
    per2
    {
        type            cyclic;
    }
}


// ************************************************************************* //
