/*--------------------------------*- C++ -*----------------------------------*\
| =========                 |                                                 |
| \\      /  F ield         | OpenFOAM: The Open Source CFD Toolbox           |
|  \\    /   O peration     | Version:  v1812                                 |
|   \\  /    A nd           | Web:      www.OpenFOAM.com                      |
|    \\/     M anipulation  |                                                 |
\*---------------------------------------------------------------------------*/
FoamFile
{
    version     2.0;
    format      ascii;
    class       polyBoundaryMesh;
    location    "constant/polyMesh";
    object      boundary;
}
// * * * * * * * * * * * * * * * * * * * * * * * * * * * * * * * * * * * * * //

4
(
    symmetry1
    {
        type            symmetry;
        inGroups        1(symmetry);
        nFaces          12060;
        startFace       23852;
    }
    symmetry2
    {
        type            symmetry;
        inGroups        1(symmetry);
        nFaces          12060;
        startFace       35912;
    }
    wing
    {
        type            wall;
        inGroups        1(wall);
        nFaces          268;
        startFace       47972;
    }
    inout
    {
        type            patch;
        nFaces          268;
        startFace       48240;
    }
)

// ************************************************************************* //
