/*--------------------------------*- C++ -*----------------------------------*\
| =========                 |                                                 |
| \\      /  F ield         | OpenFOAM: The Open Source CFD Toolbox           |
|  \\    /   O peration     | Version:  v1812                                 |
|   \\  /    A nd           | Web:      www.OpenFOAM.com                      |
|    \\/     M anipulation  |                                                 |
\*---------------------------------------------------------------------------*/
FoamFile
{
    version     2.0;
    format      ascii;
    class       volScalarField;
    location    "0";
    object      alphat;
}
// * * * * * * * * * * * * * * * * * * * * * * * * * * * * * * * * * * * * * //

dimensions      [1 -1 -1 0 0 0 0];


internalField   uniform 0.001;

boundaryField
{
    "(blade|spinner)"
    {
        type            compressible::alphatWallFunction;
        value           uniform 0.001;
    }
    "(inlet|outlet|outer|inout)"
    {
        type            calculated;
        value           uniform 0.001;
    }
    "cyc.*"
    {
        type            cyclic;
    }
}


// ************************************************************************* //
