/*--------------------------------*- C++ -*----------------------------------*\
| =========                 |                                                 |
| \\      /  F ield         | OpenFOAM: The Open Source CFD Toolbox           |
|  \\    /   O peration     | Version:  2.3.0                                 |
|   \\  /    A nd           | Web:      www.OpenFOAM.org                      |
|    \\/     M anipulation  |                                                 |
\*---------------------------------------------------------------------------*/
FoamFile
{
    version 2.0;
    format ascii;
    class dictionary;
    location system;
    object snappyHexMeshDict;
}

    castellatedMesh true;
    snap true;
    addLayers true;
    geometry
    {
        wing_lower.stl
        {
            type triSurfaceMesh;
            name  wing_lower;
        }
        wing_upper.stl
        {
            type triSurfaceMesh;
            name  wing_upper;
        }
        wing_tip.stl
        {
            type triSurfaceMesh;
            name  wing_tip;
        }
        wing_te.stl
        {
            type triSurfaceMesh;
            name  wing_te;
        }

        propeller
        {
            type            searchableBox;
            min             (-0.25 -0.25 0.0);
            max             ( 0.00  0.25 0.8);
        }

        wake
        {
            type            searchableBox;
            min             (-0.3 -0.3 0.0);
            max             ( 1.0  0.3 0.9);
        }
        wake1
        {
            type            searchableBox;
            min             (-0.5 -0.5 0.0);
            max             (3.0 0.5 1.5);

        }

        wake2
        {
            type            searchableBox;
            min             (-1.0 -0.8 0.0);
            max             (10.0 0.8 2.0);

        }
    }

    castellatedMeshControls
    {
        features
        (
            {
                file "wing_lower.eMesh";
                level 11;
            }

            {
                file "wing_upper.eMesh";
                level 11;
            }

            {
                file "wing_tip.eMesh";
                level 10;
            }

            {
                file "wing_te.eMesh";
                level 12;
            }
        );
        refinementSurfaces
        {
            wing_upper
            {
                level ( 9 9 );
            }
            
            wing_lower
            {
                level ( 9 9 );
            }
            
            wing_te
            {
                level ( 12 12 );
            }
            
            wing_tip
            {
                level ( 9 9 );
            }
 
        }

        refinementRegions
        {

            propeller
            {
                mode inside;
                levels ((8 8));
            }
            wake
            {
                mode inside;
                levels ((6 6));
            }
            wake1
            {
                mode inside;
                levels ((5 5));
            }

            wake1
            {
                mode inside;
                levels ((4 4));
            }
        }

        locationInMesh ( 5 5 5 );
        maxLocalCells 10000000;
        maxGlobalCells 200000000;
        minRefinementCells 0;
        nCellsBetweenLevels 5;
        resolveFeatureAngle 10;
        allowFreeStandingZoneFaces true;
        planarAngle 30;
        maxLoadUnbalance 0.10;
    }

    snapControls
    {
        nSolveIter 50;
        nSmoothPatch 3;
        tolerance 2.0;
        nRelaxIter 5;
        nFeatureSnapIter 10;
        implicitFeatureSnap false;
        explicitFeatureSnap true;
        multiRegionFeatureSnap false;
    }

    addLayersControls
    {
        layers
        {
            "wing.*"
            {nSurfaceLayers 4;}
        }

        relativeSizes true;
        expansionRatio 1.3;
        finalLayerThickness 0.5;
        minThickness 0.001;
        nGrow 0;
        featureAngle 180;
        slipFeatureAngle 80;
        nRelaxIter 5;
        nSmoothSurfaceNormals 1;
        nSmoothNormals 3;
        nSmoothThickness 10;
        maxFaceThicknessRatio 0.5;
        maxThicknessToMedialRatio 0.3;
        minMedialAxisAngle 90;
        nBufferCellsNoExtrude 0;
        nLayerIter 50;
        nRelaxedIter 20;
        writeVTK false;
        noErrors false;
        layerRecovery 1;
        growZoneLayers false;
        projectGrownUp 0.0;
    }

    meshQualityControls
    {
        maxNonOrtho 60;
        maxBoundarySkewness 4;
        maxInternalSkewness 4;
        maxConcave 80;
        minFlatness 0.5;
        minVol 1.00E-13;
        minTetQuality -1e30;
        minArea -1;
        minTwist 0.03;
        minDeterminant 0.01;
        minFaceWeight 0.03;
        minVolRatio 0.01;
        minTriangleTwist -1;
        nSmoothScale 4;
        errorReduction 0.75;
        relaxed {maxNonOrtho 65; maxBoundarySkewness 5; }

    }

    debug 0;
    mergeTolerance 1E-6;
    autoBlockMesh false;
